tools/germany_pcm_case_related/raw_sources/osm_europe_grid/links.csv
link_id,bus0,bus1,voltage,p_nom,length,underground,under_construction,tags,geometry
relation/10377412-320-DC,way/753113423,way/636630368,320,1000,230134.96,t,f,relation/10377412,'LINESTRING (-1.1944667534205344 50.818128178480265, -1.1951334 50.8186524, -1.1961687 50.8191167, -1.1962974 50.8193607, -1.1966086 50.8195878, -1.1979121 50.8199064, -1.1993122 50.8201707, -1.200546 50.8203029, -1.2012124 50.8200599, -1.2121064 50.8132362, -1.2129968 50.8126177, -1.2143379 50.8114551, -1.2146169 50.8110975, -1.2145928 50.8107822, -1.2144479 50.8102178, -1.2144506 50.8100975, -1.2147451 50.8097883, -1.2205339 50.805311, -1.218126 50.792213, -1.21774 50.790921, -1.217619 50.790652, -1.217626 50.790615, -1.217576 50.790529, -1.217591 50.79049, -1.217549 50.790441, -1.217511 50.790304, -1.217475 50.790138, -1.217462 50.789875, -1.217405 50.789601, -1.217421 50.789519, -1.217329 50.788972, -1.217227 50.788693, -1.216691 50.787492, -1.216072 50.786739, -1.215597 50.786294, -1.214938 50.78572, -1.21468 50.785442, -1.214158 50.784793, -1.213998 50.784636, -1.212885 50.783718, -1.212467 50.783451, -1.211893 50.783116, -1.209546 50.78185, -1.208965 50.781505, -1.206791 50.780305, -1.206151 50.779923, -1.205093 50.778879, -1.202397 50.776365, -1.20224 50.77624, -1.201015 50.775417, -1.200411 50.774987, -1.199196 50.773909, -1.197605 50.772619, -1.196169 50.771175, -1.19401 50.769316, -1.193155 50.768456, -1.192209 50.767402, -1.191786 50.767022, -1.190894 50.76628, -1.189837 50.7655, -1.188005 50.76407, -1.187615 50.763855, -1.186614 50.763385, -1.182943 50.762076, -1.182207 50.761823, -1.180727 50.761525, -1.177849 50.761188, -1.175201 50.76082, -1.171389 50.760262, -1.169401 50.759929, -1.167855 50.759701, -1.160027 50.758995, -1.157993 50.758917, -1.155826 50.758852, -1.153553 50.758673, -1.151689 50.758514, -1.148702 50.758182, -1.142181 50.757695, -1.140367 50.757543, -1.13959 50.757498, -1.137299 50.757313, -1.136181 50.757209, -1.135026 50.757026, -1.134369 50.756838, -1.133009 50.756354, -1.127517 50.754296, -1.125211 50.753493, -1.124153 50.753062, -1.122583 50.752525, -1.120715 50.751847, -1.115587 50.750063, -1.112518 50.749083, -1.11032 50.748276, -1.110029 50.748147, -1.108334 50.747297, -1.106681 50.746619, -1.101554 50.744699, -1.098749 50.74348, -1.094698 50.741949, -1.094459 50.741836, -1.094182 50.741668, -1.093287 50.741068, -1.090033 50.739851, -1.087843 50.738899, -1.086533 50.738348, -1.086033 50.738208, -1.081764 50.737249, -1.081493 50.737199, -1.079853 50.737038, -1.078304 50.736919, -1.074678 50.736746, -1.074244 50.736712, -1.072946 50.736521, -1.067963 50.735703, -1.066323 50.735415, -1.063205 50.734612, -1.061487 50.734195, -1.060579 50.733986, -1.057754 50.733377, -1.056861 50.733237, -1.05316 50.732743, -1.052808 50.732678, -1.05165 50.732418, -1.049548 50.732022, -1.047195 50.731648, -1.04687 50.731585, -1.046026 50.731461, -1.043687 50.731059, -1.041107 50.730637, -1.040453 50.730485, -1.037645 50.729739, -1.037532 50.729724, -1.035859 50.729281, -1.033168 50.728357, -1.032271 50.728072, -1.025594 50.726301, -1.020424 50.724842, -1.018524 50.724281, -1.013896 50.722834, -1.012362 50.722395, -1.011967 50.722297, -1.011257 50.722204, -1.008598 50.721952, -1.007866 50.721845, -1.006296 50.721647, -1.005955 50.721585, -1.003467 50.721275, -1.001375 50.721076, -0.99966 50.720936, -0.998457 50.720812, -0.997454 50.720696, -0.996972 50.720623, -0.995793 50.720477, -0.995279 50.72042, -0.995066 50.72041, -0.994595 50.720339, -0.992376 50.720088, -0.990153 50.71986, -0.988972 50.719766, -0.987481 50.719593, -0.985699 50.719408, -0.984454 50.719215, -0.983297 50.719088, -0.982778 50.719003, -0.981593 50.718908, -0.981148 50.718855, -0.980121 50.718775, -0.979663 50.718727, -0.979097 50.718661, -0.977548 50.718433, -0.976221 50.718276, -0.975908 50.718218, -0.973645 50.717931, -0.969478 50.717279, -0.968895 50.717169, -0.968193 50.71706, -0.965055 50.716356, -0.964427 50.71619, -0.963244 50.715837, -0.962292 50.715582, -0.961223 50.715337, -0.959296 50.714863, -0.958508 50.714687, -0.957909 50.714523, -0.957287 50.714293, -0.956318 50.713838, -0.955213 50.713246, -0.952493 50.711849, -0.951419 50.711275, -0.950466 50.710707, -0.948013 50.709149, -0.946418 50.708219, -0.943808 50.706783, -0.941573 50.70551, -0.93814 50.703606, -0.936697 50.702757, -0.935063 50.701881, -0.933397 50.700841, -0.932108 50.699957, -0.929268 50.698064, -0.925547 50.695762, -0.924015 50.694854, -0.919851 50.692301, -0.918696 50.691533, -0.917126 50.690674, -0.915651 50.68989, -0.914297 50.689006, -0.912597 50.68785, -0.912222 50.687617, -0.91096 50.686962, -0.909654 50.686375, -0.908575 50.685836, -0.908098 50.685626, -0.907312 50.685321, -0.906277 50.68485, -0.902955 50.683229, -0.901866 50.682669, -0.900245 50.681772, -0.898656 50.680919, -0.89509 50.679222, -0.893378 50.678323, -0.891787 50.67756, -0.891518 50.677414, -0.891149 50.677154, -0.890289 50.676453, -0.888485 50.674831, -0.887987 50.674406, -0.887442 50.674036, -0.885751 50.672996, -0.885156 50.67255, -0.884877 50.672312, -0.883662 50.670876, -0.88268 50.669591, -0.882252 50.66916, -0.881393 50.66823, -0.880616 50.667421, -0.880341 50.667098, -0.880107 50.666866, -0.879968 50.666659, -0.879559 50.665928, -0.879174 50.665497, -0.878293 50.664762, -0.877935 50.664506, -0.877435 50.664104, -0.876536 50.663421, -0.87628 50.66326, -0.875102 50.662672, -0.87444 50.662414, -0.87336 50.661952, -0.872832 50.661742, -0.870352 50.660656, -0.868739 50.660007, -0.86726 50.659443, -0.864679 50.658491, -0.863956 50.65819, -0.861785 50.657363, -0.860055 50.656733, -0.858395 50.656046, -0.857798 50.655773, -0.85676 50.655353, -0.854759 50.654608, -0.852953 50.653972, -0.850961 50.653217, -0.849143 50.652558, -0.848322 50.652239, -0.847812 50.652008, -0.846638 50.651381, -0.845627 50.650804, -0.845202 50.650528, -0.844424 50.650066, -0.844177 50.649941, -0.844055 50.649912, -0.843894 50.649935, -0.843595 50.650047, -0.843194 50.650243, -0.843136 50.650239, -0.843115 50.650221, -0.843122 50.650187, -0.843463 50.649882, -0.843599 50.649693, -0.843628 50.649616, -0.843593 50.649561, -0.843519 50.64951, -0.842909 50.649215, -0.842416 50.649054, -0.841788 50.648889, -0.84071 50.648555, -0.840322 50.64847, -0.839756 50.648388, -0.839434 50.648312, -0.839064 50.648256, -0.838694 50.648175, -0.83733 50.647782, -0.836858 50.647567, -0.835898 50.647171, -0.835248 50.646853, -0.833525 50.646066, -0.832843 50.645776, -0.831063 50.644978, -0.829454 50.644293, -0.828859 50.644067, -0.827109 50.643442, -0.822845 50.642032, -0.822459 50.641882, -0.820468 50.641181, -0.818109 50.640309, -0.812783 50.638285, -0.811122 50.637668, -0.810539 50.637465, -0.808403 50.636785, -0.807197 50.636353, -0.803408 50.634953, -0.800716 50.633928, -0.796959 50.632565, -0.793909 50.631397, -0.792608 50.630966, -0.789891 50.630164, -0.789189 50.629974, -0.787611 50.629585, -0.785779 50.629161, -0.782938 50.628587, -0.781431 50.628251, -0.780288 50.628015, -0.777144 50.627282, -0.775799 50.627038, -0.773872 50.626713, -0.772446 50.626366, -0.771095 50.626072, -0.770398 50.625895, -0.769808 50.625799, -0.769242 50.625683, -0.768113 50.625481, -0.767754 50.625429, -0.767105 50.625251, -0.766724 50.625182, -0.766176 50.625037, -0.765791 50.624973, -0.765477 50.624889, -0.764825 50.624769, -0.764154 50.624599, -0.763437 50.62446, -0.76271 50.624285, -0.76253 50.624258, -0.762299 50.624193, -0.761916 50.624051, -0.761765 50.624024, -0.761557 50.62396, -0.760377 50.623733, -0.759188 50.623559, -0.758207 50.623388, -0.756231 50.623012, -0.7533 50.622302, -0.750126 50.621595, -0.747584 50.620991, -0.743992 50.620321, -0.736026 50.618697, -0.734881 50.6185, -0.733395 50.61821, -0.73177 50.617842, -0.73037 50.61756, -0.729375 50.61733, -0.727539 50.616809, -0.725705 50.616385, -0.723832 50.615898, -0.722779 50.615588, -0.72112 50.615046, -0.719174 50.614446, -0.71778 50.613947, -0.714072 50.61266, -0.709596 50.611211, -0.708937 50.610974, -0.707428 50.610476, -0.702751 50.609054, -0.701483 50.608634, -0.700921 50.608426, -0.699938 50.607966, -0.699159 50.607563, -0.698777 50.607347, -0.69779 50.606728, -0.69641 50.605903, -0.695242 50.605161, -0.694025 50.604436, -0.691936 50.603226, -0.691243 50.602737, -0.690739 50.602437, -0.689916 50.601905, -0.689527 50.6017, -0.687169 50.600721, -0.68585 50.600119, -0.685339 50.59991, -0.685086 50.599779, -0.684429 50.599513, -0.683996 50.599311, -0.683373 50.599078, -0.68253 50.598694, -0.681841 50.598436, -0.679687 50.597495, -0.679251 50.597275, -0.678568 50.597038, -0.677578 50.596592, -0.6765 50.596145, -0.67543 50.595724, -0.673598 50.594945, -0.672235 50.5944, -0.670548 50.593676, -0.66961 50.593246, -0.668726 50.592926, -0.66698 50.592227, -0.665785 50.591713, -0.664397 50.59114, -0.656804 50.587668, -0.65528 50.587017, -0.651878 50.585518, -0.645174 50.582505, -0.643679 50.581892, -0.639034 50.579912, -0.637256 50.579132, -0.63613 50.578606, -0.634788 50.578084, -0.633564 50.577501, -0.63103 50.576383, -0.628605 50.575203, -0.627737 50.574663, -0.626263 50.573709, -0.622331 50.571303, -0.622026 50.571082, -0.620914 50.57003, -0.619436 50.568701, -0.618716 50.567968, -0.618042 50.567368, -0.617133 50.566433, -0.615911 50.565364, -0.614631 50.564165, -0.614089 50.563465, -0.613827 50.563157, -0.613407 50.562579, -0.612906 50.562027, -0.612721 50.561855, -0.612367 50.561445, -0.611923 50.560744, -0.610772 50.55917, -0.609183 50.556845, -0.6087 50.556319, -0.607744 50.55521, -0.607018 50.553869, -0.606449 50.552873, -0.605457 50.551327, -0.604449 50.549482, -0.604158 50.549, -0.601692 50.546803, -0.600604 50.545964, -0.599513 50.545059, -0.596608 50.54254, -0.595517 50.541557, -0.595206 50.541179, -0.593956 50.539362, -0.593762 50.538867, -0.593575 50.538223, -0.593493 50.537804, -0.593375 50.53748, -0.593098 50.536867, -0.592799 50.536077, -0.592176 50.534821, -0.591747 50.534352, -0.591305 50.533966, -0.591038 50.533789, -0.590327 50.533377, -0.588787 50.532409, -0.588211 50.53195, -0.588069 50.531816, -0.587926 50.531619, -0.587747 50.531316, -0.587476 50.530664, -0.587236 50.52986, -0.587065 50.529425, -0.586713 50.52887, -0.586248 50.528213, -0.586138 50.528095, -0.585905 50.52778, -0.58531 50.526959, -0.584296 50.525307, -0.584051 50.524837, -0.583702 50.52406, -0.583434 50.523521, -0.58259 50.522132, -0.581392 50.519911, -0.580292 50.518062, -0.580071 50.517721, -0.579442 50.516594, -0.577941 50.514091, -0.577434 50.513157, -0.576992 50.512531, -0.575241 50.509581, -0.573952 50.507648, -0.57344 50.506956, -0.57306 50.506395, -0.571746 50.504272, -0.571321 50.50338, -0.570679 50.502342, -0.570122 50.501505, -0.569439 50.500641, -0.568787 50.499522, -0.568367 50.498873, -0.567419 50.497648, -0.566464 50.496012, -0.565842 50.494894, -0.565552 50.494286, -0.565393 50.493858, -0.565174 50.493499, -0.564893 50.493116, -0.564244 50.492348, -0.562974 50.490743, -0.562179 50.489791, -0.561119 50.488411, -0.558871 50.485618, -0.557768 50.483987, -0.556181 50.481825, -0.5553 50.480423, -0.554365 50.479057, -0.553742 50.478202, -0.551861 50.475775, -0.551481 50.475203, -0.550949 50.47451, -0.550367 50.473684, -0.549089 50.471831, -0.548604 50.47119, -0.548268 50.470785, -0.547939 50.470337, -0.547551 50.469869, -0.547396 50.469627, -0.547074 50.469237, -0.546206 50.468087, -0.544746 50.466232, -0.54333 50.464372, -0.542186 50.462718, -0.541153 50.461317, -0.539896 50.459518, -0.539265 50.458548, -0.53902 50.458205, -0.533542 50.450957, -0.532548 50.449478, -0.530088 50.446021, -0.529371 50.444897, -0.528473 50.443539, -0.527631 50.442401, -0.527284 50.441888, -0.526822 50.441152, -0.526184 50.440212, -0.525762 50.43946, -0.524526 50.437659, -0.524067 50.436863, -0.523361 50.436003, -0.522453 50.434436, -0.521705 50.433339, -0.521169 50.432606, -0.520286 50.431503, -0.519639 50.430562, -0.519098 50.429884, -0.518526 50.429109, -0.518249 50.428764, -0.517413 50.427843, -0.516471 50.426556, -0.515724 50.425578, -0.514775 50.424162, -0.513528 50.422138, -0.512603 50.420729, -0.51116 50.418455, -0.509957 50.416851, -0.508913 50.415152, -0.507866 50.41369, -0.507782 50.413547, -0.507589 50.413307, -0.506715 50.412092, -0.506418 50.411703, -0.505346 50.410411, -0.504397 50.409077, -0.504015 50.408496, -0.503396 50.407619, -0.501295 50.404375, -0.500987 50.403929, -0.500215 50.402964, -0.499926 50.402555, -0.496002 50.396552, -0.495076 50.395074, -0.493851 50.393287, -0.493238 50.39235, -0.491857 50.390412, -0.491608 50.39003, -0.490805 50.389039, -0.490285 50.388354, -0.489877 50.387741, -0.488807 50.385972, -0.488626 50.385726, -0.487705 50.384276, -0.486945 50.383271, -0.486358 50.382562, -0.485041 50.380594, -0.484593 50.379876, -0.483108 50.377644, -0.481598 50.375488, -0.480946 50.374512, -0.479863 50.373002, -0.478798 50.371349, -0.47785 50.370072, -0.477436 50.36957, -0.47714 50.369172, -0.472808 50.362672, -0.469315 50.35772, -0.46751 50.354967, -0.465232 50.35158, -0.46368 50.349144, -0.462934 50.348137, -0.461911 50.346677, -0.461064 50.345531, -0.460446 50.344645, -0.458269 50.34112, -0.457386 50.339814, -0.457028 50.339249, -0.455193 50.336746, -0.453498 50.334287, -0.452986 50.333597, -0.451479 50.3314, -0.449671 50.328846, -0.447756 50.326076, -0.447409 50.325545, -0.443928 50.320586, -0.438451 50.312598, -0.435662 50.308307, -0.433779 50.305585, -0.433638 50.305331, -0.433503 50.305028, -0.433165 50.304129, -0.432696 50.303313, -0.432358 50.302544, -0.430525 50.298013, -0.429884 50.296243, -0.429125 50.29427, -0.428658 50.292917, -0.427128 50.288814, -0.426965 50.288312, -0.426227 50.283026, -0.425976 50.281861, -0.425927 50.281449, -0.425809 50.279699, -0.425759 50.279406, -0.425528 50.278486, -0.425484 50.277985, -0.42543 50.276658, -0.424787 50.272469, -0.42466 50.270391, -0.424458 50.268527, -0.424162 50.267122, -0.424075 50.26599, -0.424087 50.265685, -0.425005 50.256643, -0.424589 50.253328, -0.424414 50.252297, -0.424155 50.250403, -0.424002 50.24971, -0.423787 50.248568, -0.423408 50.24613, -0.422833 50.240122, -0.422646 50.239651, -0.421866 50.237942, -0.419975 50.233394, -0.419929 50.23319, -0.419841 50.232438, -0.41976 50.232118, -0.41975 50.231893, -0.419705 50.231679, -0.419715 50.231535, -0.419521 50.22984, -0.41934 50.22903, -0.419268 50.228547, -0.41853 50.224656, -0.418444 50.22431, -0.418229 50.223661, -0.418166 50.223394, -0.417704 50.218791, -0.417598 50.217054, -0.417555 50.216706, -0.417412 50.216211, -0.416153 50.212461, -0.414326 50.20635, -0.413763 50.204718, -0.413523 50.204118, -0.412971 50.202521, -0.412889 50.202173, -0.412379 50.199391, -0.412382 50.198897, -0.412547 50.196813, -0.412646 50.195962, -0.412699 50.195153, -0.412855 50.193745, -0.413061 50.19265, -0.413402 50.19113, -0.413426 50.19069, -0.413861 50.18775, -0.413908 50.187382, -0.413909 50.187168, -0.413652 50.185468, -0.413181 50.182003, -0.413099 50.18153, -0.412926 50.180123, -0.412793 50.179436, -0.41264 50.178118, -0.412283 50.175468, -0.412064 50.174488, -0.411876 50.173988, -0.411714 50.17342, -0.411694 50.173009, -0.411756 50.171298, -0.411739 50.17085, -0.411605 50.170062, -0.411483 50.169058, -0.411342 50.168226, -0.411263 50.16739, -0.411161 50.166854, -0.411086 50.166199, -0.41076 50.16395, -0.410677 50.163196, -0.410159 50.159514, -0.410074 50.159032, -0.409879 50.157302, -0.409803 50.156963, -0.409758 50.15655, -0.409556 50.155452, -0.409504 50.154778, -0.409348 50.153912, -0.409211 50.152602, -0.40891 50.150562, -0.408826 50.1498, -0.408712 50.149175, -0.40846 50.147023, -0.408165 50.1451, -0.408009 50.143783, -0.407888 50.142986, -0.407819 50.142278, -0.40761 50.141053, -0.407409 50.139377, -0.40718 50.137757, -0.406953 50.13526, -0.406824 50.134121, -0.405973 50.12904, -0.405234 50.125034, -0.404921 50.123075, -0.404844 50.12242, -0.404628 50.121123, -0.404599 50.120827, -0.40454 50.120596, -0.404417 50.119764, -0.404324 50.119346, -0.403734 50.115392, -0.403262 50.112496, -0.403256 50.11219, -0.403363 50.111383, -0.403419 50.110547, -0.403552 50.109282, -0.403547 50.109027, -0.403351 50.107639, -0.403249 50.106544, -0.40307 50.105246, -0.403042 50.10495, -0.403057 50.104561, -0.402871 50.103786, -0.402835 50.103193, -0.402718 50.102351, -0.402333 50.100099, -0.402255 50.0993, -0.402047 50.098076, -0.401061 50.089899, -0.400777 50.087775, -0.400382 50.08525, -0.400032 50.083766, -0.399827 50.083022, -0.399756 50.08262, -0.399542 50.081941, -0.39918 50.080339, -0.39834 50.076966, -0.398272 50.076583, -0.398161 50.075636, -0.398081 50.075181, -0.398033 50.074319, -0.397961 50.073619, -0.397936 50.072801, -0.39787 50.072047, -0.397873 50.071489, -0.397814 50.070168, -0.397725 50.06891, -0.397601 50.065881, -0.397456 50.063302, -0.397378 50.062487, -0.397262 50.061671, -0.397207 50.061413, -0.397106 50.061103, -0.397062 50.060844, -0.39705 50.060654, -0.397071 50.060291, -0.396894 50.0592, -0.396776 50.058656, -0.396734 50.05817, -0.396611 50.057429, -0.396398 50.055819, -0.396354 50.055335, -0.396376 50.055116, -0.396435 50.054849, -0.398341 50.048521, -0.398729 50.046089, -0.398883 50.045267, -0.39899 50.04485, -0.399026 50.044337, -0.39907 50.04405, -0.399457 50.042638, -0.399641 50.041621, -0.399765 50.040717, -0.400095 50.038761, -0.400617 50.034378, -0.400935 50.031996, -0.401043 50.030901, -0.401257 50.029226, -0.401417 50.028342, -0.401541 50.027374, -0.401721 50.026338, -0.402044 50.024173, -0.402181 50.023161, -0.40229 50.021748, -0.402897 50.017821, -0.402885 50.017526, -0.402847 50.01732, -0.402498 50.015997, -0.402464 50.015555, -0.402182 50.014194, -0.402166 50.013776, -0.402397 50.013001, -0.402632 50.012089, -0.402672 50.011872, -0.402677 50.011641, -0.402775 50.011413, -0.402868 50.011085, -0.40295 50.010547, -0.403088 50.010132, -0.40327 50.009466, -0.403528 50.008407, -0.403871 50.007132, -0.40401 50.006509, -0.404119 50.006137, -0.404194 50.005691, -0.404351 50.005016, -0.404471 50.004375, -0.404672 50.002645, -0.405111 50.000797, -0.405465 49.999009, -0.405768 49.996419, -0.405886 49.995307, -0.405903 49.994965, -0.406128 49.993146, -0.406384 49.990536, -0.406556 49.989156, -0.406733 49.987373, -0.407025 49.984901, -0.407034 49.984604, -0.407111 49.984057, -0.407155 49.983076, -0.407234 49.981853, -0.407318 49.980946, -0.407316 49.980748, -0.40666 49.975891, -0.406657 49.975684, -0.406485 49.974242, -0.406446 49.97373, -0.406077 49.970342, -0.405806 49.968145, -0.405576 49.965919, -0.40533 49.963974, -0.405164 49.962146, -0.405163 49.961824, -0.405242 49.960945, -0.40529 49.959929, -0.405376 49.959248, -0.405446 49.958008, -0.405697 49.954973, -0.405753 49.953688, -0.405827 49.953149, -0.405817 49.952672, -0.405852 49.952016, -0.405902 49.951585, -0.405885 49.950864, -0.405963 49.949948, -0.405997 49.949237, -0.40604 49.949032, -0.406204 49.948494, -0.406394 49.947677, -0.406729 49.946056, -0.408058 49.940277, -0.408625 49.937632, -0.408918 49.936434, -0.409575 49.933279, -0.409856 49.93137, -0.410138 49.930252, -0.410176 49.928045, -0.410299 49.926185, -0.410343 49.924858, -0.410228 49.920441, -0.410234 49.917678, -0.41024 49.91748, -0.410406 49.916334, -0.410667 49.913779, -0.410597 49.912583, -0.410605 49.912142, -0.410732 49.909003, -0.410866 49.904704, -0.410842 49.895708, -0.410816 49.894934, -0.410896 49.894271, -0.410986 49.892708, -0.411083 49.891576, -0.411261 49.888324, -0.411467 49.885648, -0.411483 49.884919, -0.411713 49.881794, -0.411714 49.881542, -0.411905 49.878803, -0.412155 49.874602, -0.412209 49.874053, -0.412585 49.868274, -0.412758 49.864937, -0.412902 49.863121, -0.412916 49.862546, -0.41298 49.861882, -0.413059 49.860299, -0.413153 49.85951, -0.413232 49.858432, -0.413268 49.857258, -0.41338 49.855841, -0.413411 49.855104, -0.41353 49.85346, -0.413538 49.85268, -0.413501 49.851048, -0.413661 49.85, -0.413698 49.849615, -0.414023 49.84314, -0.414113 49.841744, -0.41417 49.840296, -0.414228 49.839685, -0.414284 49.838687, -0.414272 49.838335, -0.414302 49.8372, -0.414416 49.83511, -0.414425 49.833705, -0.414497 49.831665, -0.414588 49.830919, -0.414595 49.830066, -0.414804 49.828426, -0.414782 49.828054, -0.414807 49.827117, -0.414796 49.826173, -0.414826 49.8246, -0.414826 49.822732, -0.415122 49.816454, -0.415385 49.814402, -0.415461 49.813578, -0.415598 49.812873, -0.415632 49.812426, -0.415778 49.81141, -0.41586 49.810567, -0.415895 49.809243, -0.415924 49.80892, -0.415883 49.808382, -0.415938 49.807896, -0.415913 49.806886, -0.415956 49.806197, -0.415895 49.804668, -0.415925 49.804192, -0.415895 49.803418, -0.415972 49.802611, -0.415962 49.802232, -0.416053 49.800811, -0.416308 49.799652, -0.416346 49.798826, -0.416385 49.798548, -0.416488 49.797184, -0.416521 49.795708, -0.416496 49.794357, -0.416521 49.794096, -0.416515 49.793807, -0.416844 49.789488, -0.416896 49.78859, -0.417041 49.786903, -0.417127 49.785547, -0.417177 49.785224, -0.4172 49.784577, -0.417437 49.781858, -0.417457 49.781355, -0.417392 49.781048, -0.416782 49.779274, -0.416505 49.778397, -0.416239 49.777682, -0.416039 49.77702, -0.415758 49.776285, -0.415576 49.77573, -0.415381 49.775299, -0.415208 49.774826, -0.415181 49.774673, -0.415052 49.774361, -0.41415 49.771797, -0.413984 49.771378, -0.413754 49.770675, -0.413243 49.769317, -0.41312 49.768931, -0.412446 49.767168, -0.411487 49.764496, -0.410743 49.76252, -0.410594 49.7621, -0.410359 49.761324, -0.40966 49.759295, -0.409041 49.75763, -0.408649 49.756645, -0.408332 49.75578, -0.408237 49.755574, -0.407924 49.75469, -0.406761 49.751718, -0.406476 49.751321, -0.405849 49.750578, -0.405128 49.749661, -0.403892 49.748172, -0.403681 49.747868, -0.402684 49.746632, -0.402274 49.746151, -0.401825 49.745576, -0.401172 49.744818, -0.399019 49.742203, -0.396371 49.73908, -0.395607 49.738123, -0.393939 49.735951, -0.39309 49.734887, -0.391733 49.733077, -0.390768 49.73186, -0.390622 49.731646, -0.39051 49.731435, -0.389512 49.729234, -0.388639 49.727378, -0.38842 49.726866, -0.388341 49.726563, -0.388303 49.725693, -0.388094 49.723836, -0.38801 49.7233, -0.387943 49.722437, -0.38763 49.720263, -0.387549 49.719521, -0.387503 49.719321, -0.385559 49.71479, -0.384144 49.711631, -0.383912 49.711184, -0.383729 49.710765, -0.383266 49.709682, -0.383092 49.70919, -0.382884 49.70876, -0.382591 49.708069, -0.381512 49.705762, -0.380441 49.703307, -0.379925 49.70222, -0.37961 49.701648, -0.379115 49.700876, -0.378944 49.700461, -0.378573 49.699719, -0.375925 49.695452, -0.375919 49.695336, -0.375956 49.695288, -0.376023 49.695245, -0.376226 49.695172, -0.377062 49.694942, -0.377097 49.694916, -0.377093 49.694885, -0.377055 49.694868, -0.376984 49.694876, -0.376437 49.695006, -0.375862 49.695096, -0.375783 49.695087, -0.375709 49.695053, -0.375597 49.694924, -0.374704 49.69321, -0.370278 49.68421, -0.36939 49.682719, -0.367905 49.680306, -0.366166 49.677019, -0.36496 49.674691, -0.36487 49.674456, -0.364824 49.674215, -0.364112 49.669588, -0.363814 49.667501, -0.363558 49.666062, -0.363465 49.665391, -0.363324 49.664686, -0.363192 49.663791, -0.363141 49.663627, -0.362991 49.663299, -0.362748 49.662887, -0.362004 49.661259, -0.361825 49.660928, -0.361437 49.660019, -0.361246 49.659437, -0.360388 49.657495, -0.360257 49.65727, -0.359972 49.65689, -0.356933 49.653, -0.356752 49.652757, -0.356432 49.652257, -0.356038 49.651822, -0.35543 49.651075, -0.355039 49.650548, -0.352869 49.647763, -0.352567 49.647331, -0.351972 49.646133, -0.34901 49.63997, -0.346975 49.635814, -0.346508 49.634678, -0.346114 49.633643, -0.345745 49.632617, -0.345445 49.631683, -0.344794 49.629803, -0.34329 49.625842, -0.339692 49.616914, -0.338575 49.614082, -0.335667 49.607322, -0.33513 49.605873, -0.333734 49.602305, -0.331631 49.597595, -0.330924 49.595812, -0.330649 49.595199, -0.33004 49.593691, -0.327485 49.587722, -0.327254 49.587111, -0.325802 49.582946, -0.325616 49.582337, -0.324844 49.580923, -0.32474 49.5807, -0.323626 49.578029, -0.322227 49.574591, -0.320775 49.57061, -0.320429 49.570019, -0.320323 49.569872, -0.320194 49.569735, -0.319152 49.568762, -0.314981 49.563994, -0.313838 49.562585, -0.312673 49.561082, -0.312407 49.560845, -0.311324 49.560104, -0.311096 49.559976, -0.310112 49.559558, -0.30742 49.558507, -0.302608 49.556557, -0.300694 49.555702, -0.299558 49.555174, -0.29543 49.553458, -0.288721 49.550893, -0.286584 49.550144, -0.285793 49.549834, -0.284592 49.54939, -0.281117 49.548023, -0.279959 49.547584, -0.276843 49.546347, -0.275599 49.545766, -0.2747 49.545398, -0.259352 49.539315, -0.259016 49.539172, -0.258798 49.539053, -0.25778 49.538384, -0.257515 49.538167, -0.256618 49.53711, -0.256483 49.536876, -0.255157 49.533222, -0.253512 49.529249, -0.25278 49.52765, -0.252449 49.526528, -0.251915 49.524866, -0.25058 49.522275, -0.249644 49.52034, -0.249408 49.519889, -0.248519 49.518317, -0.247623 49.516016, -0.247339 49.515266, -0.246928 49.513824, -0.246183 49.511757, -0.244958 49.508622, -0.243455 49.50487, -0.241383 49.499209, -0.239571 49.494388, -0.237249 49.488843, -0.236597 49.486682, -0.235387 49.483281, -0.234883 49.480303, -0.234654 49.479393, -0.23422 49.477827, -0.234088 49.477203, -0.233693 49.476121, -0.232769 49.473737, -0.232464 49.472879, -0.231547 49.470516, -0.231094 49.46928, -0.230994 49.469104, -0.229477 49.467153, -0.229148 49.466768, -0.228852 49.466479, -0.222937 49.462175, -0.218925 49.459594, -0.216351 49.458025, -0.21432 49.456811, -0.213924 49.45655, -0.210368 49.453622, -0.206981 49.450626, -0.206707 49.4504, -0.203653 49.44826, -0.198916 49.444764, -0.198007 49.444076, -0.196335 49.442856, -0.195946 49.442601, -0.190291 49.439305, -0.188391 49.438181, -0.185565 49.436545, -0.185029 49.436221, -0.184863 49.436103, -0.178296 49.430339, -0.175587 49.427848, -0.175347 49.427606, -0.175215 49.427401, -0.175161 49.427242, -0.174167 49.422851, -0.172268 49.415851, -0.171783 49.412108, -0.171684 49.411491, -0.171497 49.409941, -0.171348 49.408975, -0.16904 49.398153, -0.168449 49.395843, -0.167795 49.39281, -0.166776 49.387542, -0.165776 49.3827, -0.165737 49.382413, -0.165431 49.38087, -0.164492 49.376396, -0.162193 49.366038, -0.161416 49.362686, -0.159728 49.355068, -0.15962 49.354515, -0.159021 49.351901, -0.158669 49.350235, -0.158605 49.349744, -0.158592 49.349259, -0.158492 49.342938, -0.158467 49.338901, -0.158395 49.334586, -0.15836 49.33134, -0.158368 49.330449, -0.158319 49.327096, -0.158337 49.32682, -0.158516 49.326156, -0.158848 49.324962, -0.159015 49.324529, -0.16511 49.314352, -0.16664 49.311855, -0.16788 49.309735, -0.169479 49.307122, -0.169622 49.306802, -0.170045 49.306019, -0.170527 49.305215, -0.170715 49.304691, -0.171339 49.303642, -0.171551 49.303232, -0.171779 49.302875, -0.172033 49.302364, -0.172509 49.30109, -0.172745 49.300396, -0.173221 49.299214, -0.173836 49.297444, -0.174001 49.297035, -0.174243 49.296297, -0.174456 49.295794, -0.175136 49.293987, -0.175597 49.292701, -0.17568 49.2924, -0.175802 49.291661, -0.175832 49.290779, -0.175731 49.28549, -0.175798 49.285426, -0.175793 49.285237, -0.175785 49.285142, -0.175812 49.28507, -0.175906 49.285018, -0.176059 49.284998, -0.176453 49.284995, -0.176765 49.284972, -0.177082 49.28493, -0.177732 49.284826, -0.177871 49.284793, -0.177931 49.284745, -0.178112 49.284471, -0.178746 49.28378, -0.17971 49.28277, -0.181877 49.280528, -0.181914 49.280491, -0.182004 49.280384, -0.182173 49.280247, -0.182364 49.280038, -0.182455 49.279923, -0.182489 49.279894, -0.182519 49.279871, -0.184227 49.278096, -0.184302 49.27802, -0.184534 49.277821, -0.184642 49.277715, -0.184825 49.277514, -0.184893 49.277415, -0.184917 49.277385, -0.187811 49.274371, -0.189243 49.2729, -0.189853 49.272258, -0.190222 49.271854, -0.190596 49.271419, -0.190641 49.271346, -0.190713 49.27119, -0.190776 49.27111, -0.190989 49.270897, -0.19104 49.270807, -0.19144 49.270306, -0.191955 49.269626, -0.192284 49.269232, -0.192613 49.26891, -0.192729 49.268765, -0.19323 49.268114, -0.19372 49.267444, -0.194561 49.266373, -0.194675 49.266243, -0.19488 49.266037, -0.195642 49.265399, -0.195759 49.265296, -0.195866 49.265182, -0.195931 49.265097, -0.196106 49.264817, -0.196457 49.264206, -0.196633 49.263866, -0.196927 49.263259, -0.197107 49.262919, -0.197233 49.262742, -0.19783 49.262023, -0.197991 49.261878, -0.198368 49.261616, -0.199605 49.260846, -0.200732 49.260166, -0.200994 49.259977, -0.201615 49.259497, -0.202179 49.259054, -0.203571 49.257901, -0.20512 49.25664, -0.205351 49.256419, -0.205742 49.255987, -0.205894 49.255837, -0.206135 49.255635, -0.206687 49.255218, -0.206873 49.255058, -0.206971 49.254955, -0.207112 49.254782, -0.207418 49.254352, -0.208004 49.253627, -0.208552 49.252586, -0.208909 49.25195, -0.209315 49.25129, -0.209531 49.250968, -0.209945 49.250411, -0.210123 49.250215, -0.210639 49.249704, -0.21082 49.249482, -0.21092 49.249314, -0.211315 49.248571, -0.211459 49.248333, -0.211497 49.248216, -0.211561 49.248096, -0.212456 49.246808, -0.212553 49.246586, -0.212721 49.24642, -0.21289 49.246307, -0.213108 49.246189, -0.214957 49.245242, -0.215273 49.245071, -0.215718 49.24485, -0.216206 49.244586, -0.218031 49.243639, -0.219119 49.243059, -0.220912 49.242152, -0.221034 49.2421, -0.221172 49.242058, -0.221401 49.242003, -0.221564 49.241973, -0.221721 49.241963, -0.222185 49.241848, -0.223011 49.241547, -0.223448 49.241374, -0.223773 49.241263, -0.223848 49.241241, -0.224172 49.241209, -0.224491 49.241142, -0.224854 49.241023, -0.224953 49.240978, -0.225455 49.240674, -0.225574 49.240572, -0.225659 49.240525, -0.225906 49.240363, -0.226053 49.240244, -0.226132 49.240165, -0.226398 49.239953, -0.227001 49.239581, -0.22715 49.23948, -0.227418 49.23928, -0.228052 49.238757, -0.22815 49.238692, -0.228311 49.238605, -0.228474 49.238533, -0.228651 49.238469, -0.229084 49.238354, -0.229256 49.238319, -0.229967 49.238207, -0.230081 49.238182, -0.2302 49.238137, -0.230288 49.238057, -0.230412 49.237913, -0.230431 49.237877, -0.230607 49.237415, -0.230738 49.236751, -0.23079 49.236643, -0.230812 49.236424, -0.230881 49.236097, -0.230942 49.235888, -0.231092 49.235462, -0.231226 49.235148, -0.231273 49.235065, -0.231809 49.234279, -0.232359 49.233521, -0.23248 49.233307, -0.233222 49.232107, -0.234084 49.230853, -0.234463 49.230275, -0.235223 49.229222, -0.235673 49.228515, -0.235886 49.228097, -0.236238 49.227319, -0.236391 49.227012, -0.236823 49.225865, -0.236858 49.225723, -0.236846 49.225595, -0.236786 49.225418, -0.236732 49.225334, -0.236503 49.225062, -0.23534 49.223736, -0.235261 49.223634, -0.235223 49.223485, -0.235218 49.223398, -0.235232 49.223341, -0.23549 49.222656, -0.235528 49.222575, -0.235553 49.22255, -0.235592 49.222514, -0.235789 49.222321, -0.236075 49.222084, -0.236328 49.221857, -0.236426 49.221756, -0.236673 49.22145, -0.236734 49.221408, -0.236843 49.221362, -0.237165 49.221143, -0.23728 49.221055, -0.237803 49.22061, -0.238947 49.219598, -0.239744 49.218911, -0.240003 49.218692, -0.240312 49.218456, -0.240783 49.218065, -0.241421 49.217644, -0.241806 49.217433, -0.242007 49.217302, -0.24223 49.217218, -0.242254 49.21721, -0.242541 49.217087, -0.242919 49.216905, -0.242945 49.216896, -0.243533 49.216674, -0.243984 49.216537, -0.244684 49.216346, -0.24477 49.216303, -0.244813 49.216269, -0.244995 49.216169, -0.245333 49.21589, -0.245382 49.215822, -0.245429 49.215753, -0.24592 49.215331, -0.246706 49.214724, -0.248162 49.213537, -0.248271 49.213444, -0.248577 49.213151, -0.248992 49.212793, -0.249459 49.212413, -0.25006 49.211902, -0.250633 49.211451, -0.251396 49.210892, -0.251447 49.210815, -0.251451 49.210655, -0.251655 49.209948, -0.251662 49.20988, -0.251632 49.209839, -0.251552 49.209798, -0.251316 49.209696, -0.251078 49.209606, -0.250386 49.209388, -0.249456 49.209116, -0.249047 49.208977, -0.248571 49.208898, -0.248299 49.208843, -0.245665 49.208244, -0.245575 49.208211, -0.245318 49.208062, -0.245295 49.208043, -0.245264 49.207972, -0.245252 49.207881, -0.245073 49.206478, -0.244906 49.204929, -0.244794 49.204022, -0.244693 49.202984, -0.244689 49.202826, -0.244714 49.202598, -0.24469 49.202514, -0.244638 49.202454, -0.244505 49.202352, -0.244369 49.202277, -0.244232 49.202235, -0.24166 49.201787, -0.240463 49.201587, -0.240283 49.201545, -0.240197 49.201503, -0.240172 49.201483, -0.239942 49.201256, -0.239706 49.201005, -0.239679 49.200937, -0.239656 49.200699, -0.239848 49.198609, -0.239854 49.198232, -0.239828 49.197963, -0.239781 49.197754, -0.239684 49.197444, -0.239569 49.197188, -0.239539 49.197099, -0.239458 49.196788, -0.239428 49.196587, -0.239421 49.19646, -0.239417 49.19628, -0.239432 49.195931, -0.239558 49.195158, -0.239653 49.194685, -0.239753 49.194266, -0.239845 49.194008, -0.240227 49.193055, -0.240338 49.192703, -0.240594 49.192047, -0.240677 49.191842, -0.240817 49.191541, -0.241037 49.190979, -0.2411 49.190805, -0.241169 49.190545, -0.241194 49.190346, -0.241204 49.189907, -0.241162 49.189177, -0.241181 49.188323, -0.241288 49.187705, -0.241312 49.187617, -0.241391 49.187292, -0.24139 49.18727, -0.241599 49.186254, -0.241706 49.185835, -0.241792 49.185582, -0.242513 49.183766, -0.242757 49.182961, -0.243195 49.181594, -0.243485 49.180546, -0.243584 49.180124, -0.243786 49.179019, -0.243813 49.178718, -0.243856 49.17789, -0.243836 49.177664, -0.243879 49.17748, -0.243987 49.177265, -0.244119 49.176743, -0.244252 49.176058, -0.244582 49.174554, -0.244594 49.174464, -0.244637 49.174162, -0.244656 49.174121, -0.244698 49.173772, -0.244681 49.173586, -0.244628 49.173317, -0.244474 49.172754, -0.244212 49.171953, -0.243948 49.171085, -0.243709 49.170135, -0.243689 49.170046, -0.24369 49.169969, -0.243773 49.169796, -0.243853 49.169703, -0.24393 49.169641, -0.24405 49.169579, -0.244892 49.169291, -0.245117 49.169158, -0.245199 49.169086, -0.245244 49.169008, -0.245257 49.168964, -0.245261 49.168878, -0.245238 49.168766, -0.245204 49.168723, -0.245182 49.16867, -0.244987 49.168053, -0.244877 49.167658, -0.24483 49.167301, -0.24475 49.167022, -0.244753 49.166894, -0.244804 49.166691, -0.244785 49.166553, -0.244785 49.166536, -0.244617 49.165418, -0.244454 49.164474, -0.244353 49.163795, -0.244296 49.163347, -0.244188 49.162289, -0.244057 49.161614, -0.243913 49.160364, -0.243868 49.160144, -0.243676 49.158961, -0.243573 49.158522, -0.243296 49.157727, -0.243023 49.157059, -0.242523 49.155959, -0.24251 49.15585, -0.242765 49.155061, -0.242856 49.154376, -0.242857 49.15421, -0.24281 49.153672, -0.242784 49.152797, -0.242812 49.152389, -0.242838 49.152236, -0.243183 49.15121, -0.243478 49.150401, -0.243666 49.149754, -0.24406 49.148703, -0.245691 49.144118, -0.245716 49.143973, -0.245686 49.14315, -0.245791 49.142459, -0.245811 49.14237, -0.245809 49.14233, -0.245908 49.141904, -0.245915 49.141879, -0.245924 49.14184, -0.24598 49.141761, -0.24605 49.141702, -0.246265 49.141561, -0.246491 49.14144, -0.247136 49.141141, -0.247926 49.140791, -0.248337 49.140589, -0.249239 49.140182, -0.25002 49.139815, -0.251163 49.139341, -0.251662 49.139148, -0.25218 49.138894, -0.25223 49.138867, -0.252304 49.138813, -0.25236 49.138753, -0.252689 49.138355, -0.252991 49.138023, -0.253489 49.137606, -0.253537 49.137575, -0.253595 49.137535, -0.253716 49.137405, -0.254046 49.137011, -0.254132 49.136929, -0.254305 49.13682, -0.254603 49.136673, -0.25466 49.136628, -0.254755 49.136418, -0.255139 49.13594, -0.255371 49.135676, -0.256009 49.134983, -0.256917 49.134032, -0.256974 49.133944, -0.257034 49.133759, -0.257073 49.1337, -0.257147 49.133625, -0.258238 49.13259, -0.25923 49.131684, -0.260066 49.130895, -0.261284 49.129809, -0.261361 49.129734, -0.26141 49.129661, -0.261436 49.129581, -0.261509 49.12948, -0.263295 49.127848, -0.265095 49.126129, -0.265241 49.125976, -0.2653 49.125893, -0.265462 49.125413, -0.265859 49.12358, -0.265998 49.122992, -0.266325 49.121988, -0.266425 49.121726, -0.266432 49.121677, -0.266406 49.121608, -0.266341 49.12155, -0.266043 49.121379, -0.263137 49.120236, -0.260098 49.119017, -0.259958 49.118955, -0.259886 49.118904, -0.259785 49.118785, -0.259621 49.118465, -0.259339 49.117054, -0.259346 49.116897, -0.259406 49.116716, -0.259665 49.116177, -0.259745 49.116054, -0.259766 49.116022, -0.25987 49.115892, -0.260126 49.115524, -0.26014 49.115499, -0.260169 49.115429, -0.260282 49.115265, -0.262707 49.112263, -0.262758 49.112184, -0.262763 49.11213, -0.262733 49.112, -0.26263 49.111928, -0.26238 49.111802, -0.261674 49.111377, -0.261575 49.111315, -0.261499 49.11124, -0.261478 49.111152, -0.261544 49.111035, -0.261643 49.11091, -0.262116949775399 49.110757695414016)'
relation/13295785-515-DC,relation/12832053,way/642490160,515,1400,723361.57,t,f,relation/13295785,'LINESTRING (-1.5403565973287965 55.146512612657816, -1.5408101 55.1471784, -1.540795 55.1498489, -1.5403712 55.1513907, -1.540339 55.152905, -1.5403926 55.1534444, -1.5400386 55.1554888, -1.537748 55.1566688, -1.5361976 55.1573952, -1.5288162 55.1590594, -1.5276897 55.1593382, -1.5270876 55.1593191, -1.5259033 55.1584793, -1.5256445 55.1584426, -1.5253938 55.1583951, -1.5228376 55.1583238, -1.5218478 55.1583652, -1.4955167 55.1578833, -1.44575 55.1537167, -1.4390333 55.15435, -1.314497 55.1883624, -1.1196833 55.2442167, -1.0883333 55.2583333, -0.9757 55.3053333, -0.8388167 55.36165, -0.761555 55.4222892, -0.671137 55.4931362, -0.6683333 55.4966667, -0.5288656 55.5856692, -0.4016667 55.6666667, -0.2879441 55.7389395, -0.1530667 55.8244833, -0.0767328 55.9158326, -0.0047216 55.986925, 0.1045416 56.094545, 0.1850236 56.1543061, 0.2776949 56.2230033, 0.3634398 56.2864566, 0.4492377 56.3498437, 0.5483086 56.38185, 0.6605526 56.4180796, 0.8528995 56.4961912, 0.9679778 56.6033037, 1.0811233 56.708322, 1.0942833 56.7089667, 1.1574267 56.7628859, 1.1970805 56.8009254, 1.2069833 56.8028333, 1.2459182 56.8386916, 1.2545333 56.8412833, 1.3464259 56.9076433, 1.3715743 56.934486, 1.39786 56.9493512, 1.5073585 56.9875991, 1.6369897 57.0337336, 1.7836163 57.0852947, 1.9367 57.13905, 1.9420266 57.1430271, 2.0127725 57.1809015, 2.1519899 57.2645761, 2.1613026 57.2729586, 2.173 57.2744833, 2.1793377 57.2791588, 2.1995857 57.2912355, 2.2704363 57.3348376, 2.2852333 57.3457333, 2.2926235 57.3458034, 2.3030333 57.3544167, 2.3454833 57.3794667, 2.3667061 57.3884546, 2.3806657 57.3965835, 2.3849505 57.39715, 2.3927879 57.397335, 2.395041 57.3982888, 2.4826688 57.4508269, 2.5716913 57.5041239, 2.5757333 57.5068667, 2.5803709 57.5107749, 2.5844854 57.5121191, 2.6599455 57.5562433, 2.7628574 57.6163335, 2.8438769 57.6635709, 2.9305065 57.7140112, 3.0168669 57.763937, 3.1026983 57.8134886, 3.2370806 57.8909328, 3.3676709 57.9660322, 3.5014844 58.0428224, 3.6604019 58.131965, 3.8190352 58.2207263, 3.9733979 58.3068856, 4.1204685 58.3887799, 4.2377203 58.453608, 4.3540488 58.5178078, 4.4261402 58.557535, 4.4925499 58.5940913, 4.6132067 58.6589452, 4.6966485 58.7037254, 4.8608923 58.7917011, 4.9773563 58.8529172, 5.0920772 58.9131114, 5.13628 58.9369018, 5.1759338 58.9600119, 5.2240848 58.990536, 5.2467441 59.0038873, 5.2738237 59.0194867, 5.2760124 59.0202378, 5.2785444 59.0203262, 5.2821064 59.0200169, 5.28584 59.0210551, 5.2887153 59.0224468, 5.3254508 59.0535335, 5.3696537 59.0900377, 5.3731298 59.0924185, 5.3751468 59.0933884, 5.3808546 59.0949754, 5.3846311 59.0956587, 5.3960037 59.0977967, 5.4017114 59.0987665, 5.4060888 59.0989428, 5.4101228 59.098502, 5.413599 59.0979069, 5.4223537 59.0980392, 5.432868 59.0992734, 5.4451847 59.100794, 5.4518365 59.1019841, 5.4541111 59.1024689, 5.4608059 59.1066337, 5.4722213 59.113684, 5.4785728 59.1162394, 5.4964256 59.1232217, 5.5006313 59.1259525, 5.5373025 59.1470487, 5.5379999 59.1473073, 5.539813 59.1474999, 5.5404138 59.147665, 5.5819128 59.1714421, 5.6089925 59.1872073, 5.6123828 59.18879, 5.6178331 59.1900869, 5.6247425 59.1912958, 5.6299781 59.1915596, 5.6390333 59.1906804, 5.6474876 59.1894494, 5.6541395 59.1897792, 5.6686878 59.1939553, 5.7022047 59.1983067, 5.708642 59.1984386, 5.7186842 59.1996033, 5.7343912 59.2017128, 5.7419443 59.2012733, 5.748682 59.2014052, 5.7585954 59.2019765, 5.7636594 59.2014711, 5.7771349 59.2028774, 5.8099651 59.2025697, 5.8179473 59.2030531, 5.8239126 59.2040858, 5.8290195 59.2042616, 5.8357143 59.2059754, 5.841937 59.2060632, 5.8448982 59.2077549, 5.8476877 59.2098639, 5.8498334 59.2135544, 5.8596611 59.2190454, 5.8601331 59.2226251, 5.863738 59.2256993, 5.8645534 59.2271046, 5.8677291 59.230376, 5.8697032 59.2327471, 5.8707761 59.235096, 5.8703041 59.2369509, 5.8701324 59.238213, 5.8707118 59.2391898, 5.873115 59.2409567, 5.8765268 59.2428222, 5.8833932 59.2465969, 5.8888864 59.2496031, 5.8942937 59.2518851, 5.8974695 59.2527189, 5.9072971 59.2550006, 5.909872 59.2558562, 5.9114599 59.2571286, 5.9122324 59.2605727, 5.9137344 59.2637093, 5.9131765 59.2657271, 5.9132194 59.2675913, 5.9134769 59.2697844, 5.9146785 59.2709685, 5.9181117 59.2731613, 5.920515 59.2752225, 5.9230041 59.2771081, 5.9254073 59.2790374, 5.9278106 59.2800897, 5.9317588 59.2811858, 5.9369086 59.2832465, 5.9475516 59.2895153, 5.9506845 59.2918822, 5.9550619 59.293986, 5.9621429 59.296747, 5.9648895 59.2983685, 5.9675073 59.3003405, 5.9699964 59.3018084, 5.9745884 59.3028162, 5.9782791 59.3031886, 5.982356 59.3026847, 5.9854459 59.303342, 5.9891796 59.3049412, 5.9931707 59.306168, 6.000595 59.3125421, 6.015315 59.3180391, 6.0174608 59.3195938, 6.017847 59.3210828, 6.0166883 59.3230097, 6.012268 59.3258778, 6.0108089 59.3271914, 6.0084056 59.3317886, 6.0084056 59.3343714, 6.0093497 59.3391427, 6.0099506 59.3413749, 6.0129546 59.3443947, 6.0217952 59.3514398, 6.0237693 59.354043, 6.0254001 59.3574554, 6.0258293 59.3608674, 6.0265588 59.3672094, 6.0274601 59.3704455, 6.0283184 59.3716918, 6.0297346 59.3731567, 6.0314941 59.3758457, 6.0342836 59.3789717, 6.036129 59.3808953, 6.0375452 59.3843705, 6.0410213 59.3875832, 6.0449266 59.3907955, 6.0475444 59.3927402, 6.0508918 59.3946412, 6.053853 59.3960613, 6.061449 59.3985956, 6.080203 59.4015011, 6.0813617 59.4018725, 6.0845375 59.404035, 6.0869836 59.4054985, 6.0885286 59.4067871, 6.0890436 59.407082, 6.089859 59.4071803, 6.0910606 59.4070164, 6.092391 59.4066561, 6.096425 59.4051927, 6.0996007 59.4047995, 6.1069393 59.4029428, 6.109128 59.4028773, 6.1123466 59.4025933, 6.1163806 59.4027899, 6.1201572 59.4034234, 6.1228609 59.4040132, 6.123805 59.4045811, 6.1244058 59.405564, 6.12432 59.4075297, 6.1237621 59.4115919, 6.1241054 59.4131423, 6.1251783 59.4152168, 6.127367 59.4175313, 6.1301994 59.4197147, 6.1327529 59.4216687, 6.1351347 59.422793, 6.1372804 59.4234807, 6.1395979 59.4238736, 6.1529875 59.4245176, 6.1564636 59.4248996, 6.1589527 59.4258601, 6.1631582 59.4282286, 6.1659479 59.4298328, 6.168394 59.4317644, 6.1810112 59.441737, 6.1826419 59.4440497, 6.1928558 59.4534953, 6.1947012 59.4547167, 6.2237978 59.4707653, 6.2253427 59.4719861, 6.2258577 59.4732069, 6.2259864 59.4749943, 6.2251281 59.4782855, 6.224184 59.4820123, 6.2225103 59.4853464, 6.2223386 59.4870678, 6.2222957 59.490445, 6.222639 59.4913383, 6.2285184 59.4979391, 6.2313509 59.5002044, 6.2352132 59.5019468, 6.2412214 59.5049523, 6.2452983 59.506934, 6.2496328 59.5082842, 6.2543964 59.5095689, 6.2773561 59.5132487, 6.2889862 59.5147292, 6.309843 59.5184084, 6.3277817 59.524438, 6.3359356 59.5270932, 6.3510203 59.5290954, 6.3581443 59.529683, 6.3699674 59.5320224, 6.3769626 59.5336979, 6.3934421 59.5386587, 6.3981628 59.5394528, 6.4038276 59.5394854, 6.4050293 59.539518, 6.4193415 59.5436513, 6.4245772 59.5462834, 6.4258003 59.5465987, 6.4311218 59.5469576, 6.4337611 59.5471316, 6.4351129 59.5475449, 6.4372158 59.5485889, 6.4389109 59.5494045, 6.4443612 59.5508508, 6.4543605 59.5515468, 6.4597892 59.5521122, 6.463995 59.5524058, 6.4657759 59.5526233, 6.4726424 59.5543195, 6.4743161 59.5545913, 6.4762258 59.5545478, 6.4796805 59.5539281, 6.4816117 59.5539607, 6.4906454 59.5546022, 6.494143 59.5547109, 6.5069103 59.5534496, 6.5160513 59.5537324, 6.5281856 59.5547544, 6.5348804 59.5560428, 6.5362215 59.5561516, 6.553688 59.5554992, 6.5547073 59.5556188, 6.5576577 59.5564342, 6.5626895 59.5568202, 6.5683007 59.556494, 6.5704572 59.5563799, 6.571219 59.5564288, 6.5751886 59.5571083, 6.5767658 59.5573149, 6.5793085 59.5574019, 6.5838897 59.5576084, 6.585263 59.5577009, 6.58647 59.5578068, 6.5874839 59.5579292, 6.5880981 59.5579115, 6.5886185 59.5578136, 6.5890342 59.5576315, 6.5892971 59.5573991, 6.5895183 59.557105, 6.6116291 59.5401244, 6.611715 59.5400238, 6.6117525 59.5399042, 6.6117686 59.5397954, 6.6117579 59.5396281, 6.6116466 59.5391482, 6.6116023 59.5385961, 6.6115969 59.5379597, 6.6116935 59.5373641, 6.6118383 59.5367658, 6.6122997 59.5355637, 6.6134691 59.5332518, 6.6157007 59.5297918, 6.6169667 59.5278767, 6.6177177 59.5270987, 6.6187477 59.5263315, 6.6207647 59.5251725, 6.6230929 59.5239809, 6.6259897 59.5227837, 6.6275024 59.5223062, 6.6282883 59.5221566, 6.6288516 59.5221212, 6.629447 59.5221239, 6.6300425 59.5221743, 6.6310939 59.5222913, 6.6323304 59.5224423, 6.6330801 59.5225667, 6.6340899 59.522732, 6.6342562 59.5227388, 6.6343743 59.522728, 6.6357475 59.52226, 6.636064 59.5221117, 6.6363054 59.5220233, 6.6364878 59.5220042, 6.6368633 59.5220233, 6.6374856 59.5220777, 6.6382393 59.5221511, 6.6396609 59.5222845, 6.6398218 59.5223022, 6.6400257 59.5223539, 6.6402 59.5224096, 6.6416028 59.5231579, 6.6433731 59.5240271, 6.6437808 59.5241849, 6.6445398 59.5244842, 6.6455349 59.5248882, 6.6462404 59.5251372, 6.646758 59.525295, 6.647214 59.5254772, 6.6478524 59.5257547, 6.6486731 59.526137, 6.6496038 59.5265818, 6.6501671 59.526896, 6.6523746 59.5282766, 6.6526964 59.5284895, 6.6530438 59.5287397, 6.6532262 59.5288955, 6.65332 59.5289853, 6.6533294 59.5290179, 6.6533321 59.5290573, 6.6533227 59.529107, 6.6532999 59.5292036, 6.6532865 59.5296776, 6.653198 59.5300893, 6.6528996 59.5303658, 6.6528051 59.5304511, 6.6527507 59.5305171, 6.6527333 59.5305477, 6.6527333 59.5305637, 6.6527762 59.5306072, 6.6528185 59.5306334, 6.652972 59.530732, 6.654928160547617 59.530194869729044)'
...